xflr5 v6.47

E387
Reynolds =  100000   Mach =    0  NCrit = 9.0
Alpha,Cd,Cl,Cm,XTr1,XTr2,TEHMom,Cpmn
  5.000       0.023     0.913    -0.084     0.632     1.000    0.0000  -1.4612
 Cpi          Cpv
-----------------
 0.2348    0.1100
 0.1964    0.1040
 0.1488    0.0928
 0.0841    0.0734
 0.0249    0.0471
-0.0222    0.0166
-0.0676   -0.0182
-0.1133   -0.0575
-0.1640   -0.1041
-0.2202   -0.1644
-0.2830   -0.2570
-0.3539   -0.4248
-0.4326   -0.6741
-0.5275   -0.7386
-0.6334   -0.7451
-0.7409   -0.7532
-0.8389   -0.7677
-0.9275   -0.7963
-1.0023   -0.8445
-1.0595   -0.9085
-1.0929   -0.9652
-1.1299   -1.0150
-1.1703   -1.0616
-1.2185   -1.1093
-1.2721   -1.1584
-1.3324   -1.2099
-1.4027   -1.2644
-1.4800   -1.3178
-1.5616   -1.3650
-1.6468   -1.3402
-1.5912   -1.4612
-2.1563   -1.4110
 0.2192    0.5354
 0.9596    0.9172
 0.7784    0.7027
 0.6054    0.5519
 0.4952    0.4356
 0.4235    0.3766
 0.3743    0.3292
 0.3404    0.2996
 0.3158    0.2778
 0.2981    0.2620
 0.2845    0.2500
 0.2737    0.2402
 0.2649    0.2321
 0.2580    0.2252
 0.2518    0.2190
 0.2465    0.2132
 0.2418    0.2076
 0.2377    0.2020
 0.2335    0.1959
 0.2299    0.1896
 0.2262    0.1827
 0.2234    0.1752
 0.2199    0.1663
 0.2174    0.1562
 0.2137    0.1439
 0.2179    0.1320
 0.2295    0.1197
 0.2394    0.1063
 0.2348    0.1100


Reynolds =  100000   Mach =    0  NCrit = 9.0
Alpha,Cd,Cl,Cm,XTr1,XTr2,TEHMom,Cpmn
  4.500       0.023     0.864    -0.086     0.651     1.000    0.0000  -1.2218
 Cpi          Cpv
-----------------
 0.2328    0.1127
 0.1952    0.1064
 0.1482    0.0952
 0.0843    0.0758
 0.0260    0.0497
-0.0201    0.0195
-0.0644   -0.0148
-0.1089   -0.0540
-0.1583   -0.1022
-0.2130   -0.1696
-0.2741   -0.2820
-0.3431   -0.4751
-0.4195   -0.6916
-0.5117   -0.6984
-0.6145   -0.7045
-0.7184   -0.7130
-0.8124   -0.7294
-0.8968   -0.7617
-0.9669   -0.8143
-1.0190   -0.8783
-1.0472   -0.9295
-1.0781   -0.9725
-1.1113   -1.0118
-1.1507   -1.0510
-1.1935   -1.0899
-1.2401   -1.1289
-1.2926   -1.1675
-1.3459   -1.1992
-1.3940   -1.2218
-1.4282   -1.1531
-1.3119   -1.1964
-1.6263   -1.0055
 0.5123    0.7339
 0.9157    0.8656
 0.7144    0.6356
 0.5448    0.4938
 0.4422    0.3847
 0.3778    0.3331
 0.3347    0.2921
 0.3058    0.2672
 0.2853    0.2494
 0.2711    0.2371
 0.2605    0.2279
 0.2521    0.2206
 0.2455    0.2146
 0.2405    0.2096
 0.2359    0.2050
 0.2322    0.2007
 0.2288    0.1964
 0.2259    0.1922
 0.2228    0.1873
 0.2204    0.1821
 0.2176    0.1763
 0.2158    0.1699
 0.2131    0.1621
 0.2115    0.1531
 0.2086    0.1420
 0.2136    0.1314
 0.2261    0.1204
 0.2367    0.1086
 0.2328    0.1127


Reynolds =  100000   Mach =    0  NCrit = 9.0
Alpha,Cd,Cl,Cm,XTr1,XTr2,TEHMom,Cpmn
  4.000       0.023     0.810    -0.087     0.668     1.000    0.0000  -1.0749
 Cpi          Cpv
-----------------
 0.2310    0.1107
 0.1940    0.1046
 0.1477    0.0937
 0.0846    0.0751
 0.0272    0.0500
-0.0179    0.0207
-0.0610   -0.0134
-0.1044   -0.0543
-0.1524   -0.1082
-0.2056   -0.1907
-0.2651   -0.3347
-0.3321   -0.5369
-0.4063   -0.6503
-0.4958   -0.6559
-0.5955   -0.6615
-0.6958   -0.6702
-0.7859   -0.6879
-0.8660   -0.7228
-0.9314   -0.7788
-0.9787   -0.8413
-1.0018   -0.8873
-1.0267   -0.9240
-1.0528   -0.9562
-1.0837   -0.9871
-1.1160   -1.0159
-1.1493   -1.0425
-1.1846   -1.0652
-1.2151   -1.0749
-1.2317   -1.0723
-1.2186   -0.9624
-1.0482   -0.9355
-1.1446   -0.6129
 0.7368    0.8850
 0.8558    0.7971
 0.6424    0.5574
 0.4801    0.4282
 0.3865    0.3284
 0.3304    0.2853
 0.2939    0.2516
 0.2704    0.2320
 0.2543    0.2187
 0.2437    0.2100
 0.2361    0.2039
 0.2303    0.1991
 0.2260    0.1953
 0.2229    0.1923
 0.2200    0.1894
 0.2178    0.1866
 0.2158    0.1837
 0.2142    0.1808
 0.2123    0.1771
 0.2109    0.1729
 0.2091    0.1680
 0.2082    0.1625
 0.2065    0.1555
 0.2057    0.1473
 0.2036    0.1370
 0.2095    0.1270
 0.2227    0.1168
 0.2341    0.1058
 0.2310    0.1107


Reynolds =  100000   Mach =    0  NCrit = 9.0
Alpha,Cd,Cl,Cm,XTr1,XTr2,TEHMom,Cpmn
  3.500       0.022     0.766    -0.088     0.687     1.000    0.0000  -0.9798
 Cpi          Cpv
-----------------
 0.2293    0.1197
 0.1930    0.1129
 0.1474    0.1013
 0.0851    0.0814
 0.0286    0.0552
-0.0155    0.0257
-0.0575   -0.0075
-0.0997   -0.0463
-0.1464   -0.0981
-0.1981   -0.1822
-0.2559   -0.3433
-0.3210   -0.5963
-0.3929   -0.6172
-0.4798   -0.6229
-0.5763   -0.6294
-0.6731   -0.6401
-0.7593   -0.6619
-0.8351   -0.7020
-0.8960   -0.7624
-0.9384   -0.8205
-0.9565   -0.8592
-0.9756   -0.8888
-0.9948   -0.9135
-1.0174   -0.9363
-1.0395   -0.9557
-1.0602   -0.9710
-1.0790   -0.9798
-1.0877   -0.9703
-1.0748   -0.9457
-1.0182   -0.8030
-0.8001   -0.7208
-0.7114   -0.3004
 0.8926    0.9671
 0.7800    0.7243
 0.5622    0.4818
 0.4111    0.3667
 0.3283    0.2766
 0.2814    0.2418
 0.2520    0.2150
 0.2342    0.2005
 0.2227    0.1915
 0.2160    0.1863
 0.2115    0.1832
 0.2084    0.1809
 0.2063    0.1793
 0.2052    0.1782
 0.2041    0.1771
 0.2035    0.1759
 0.2028    0.1745
 0.2025    0.1729
 0.2017    0.1706
 0.2014    0.1677
 0.2006    0.1642
 0.2008    0.1601
 0.1999    0.1547
 0.2000    0.1481
 0.1987    0.1399
 0.2054    0.1321
 0.2195    0.1242
 0.2317    0.1155
 0.2293    0.1197


Reynolds =  100000   Mach =    0  NCrit = 9.0
Alpha,Cd,Cl,Cm,XTr1,XTr2,TEHMom,Cpmn
  3.000       0.021     0.714    -0.089     0.701     1.000    0.0000  -0.8915
 Cpi          Cpv
-----------------
 0.2277    0.1192
 0.1921    0.1125
 0.1472    0.1013
 0.0858    0.0820
 0.0302    0.0565
-0.0129    0.0273
-0.0539   -0.0066
-0.0948   -0.0492
-0.1402   -0.1115
-0.1904   -0.2187
-0.2465   -0.3958
-0.3097   -0.5745
-0.3794   -0.5809
-0.4637   -0.5864
-0.5570   -0.5932
-0.6503   -0.6053
-0.7327   -0.6299
-0.8043   -0.6737
-0.8606   -0.7355
-0.8982   -0.7892
-0.9114   -0.8217
-0.9248   -0.8449
-0.9373   -0.8626
-0.9519   -0.8776
-0.9641   -0.8876
-0.9725   -0.8915
-0.9757   -0.8862
-0.9638   -0.8575
-0.9233   -0.8116
-0.8270   -0.6403
-0.5678   -0.4849
-0.3268   -0.0038
 0.9798    0.9999
 0.6883    0.6318
 0.4741    0.3930
 0.3379    0.2957
 0.2676    0.2178
 0.2308    0.1926
 0.2091    0.1738
 0.1973    0.1651
 0.1906    0.1608
 0.1878    0.1595
 0.1866    0.1595
 0.1862    0.1600
 0.1865    0.1607
 0.1874    0.1616
 0.1881    0.1622
 0.1891    0.1625
 0.1898    0.1625
 0.1909    0.1623
 0.1913    0.1612
 0.1921    0.1595
 0.1923    0.1569
 0.1934    0.1538
 0.1934    0.1493
 0.1944    0.1436
 0.1940    0.1362
 0.2015    0.1293
 0.2164    0.1222
 0.2293    0.1145
 0.2277    0.1192


Reynolds =  100000   Mach =    0  NCrit = 9.0
Alpha,Cd,Cl,Cm,XTr1,XTr2,TEHMom,Cpmn
  2.500       0.020     0.662    -0.090     0.716     1.000    0.0000  -0.8208
 Cpi          Cpv
-----------------
 0.2262    0.1202
 0.1913    0.1134
 0.1472    0.1022
 0.0865    0.0832
 0.0319    0.0581
-0.0102    0.0289
-0.0501   -0.0060
-0.0898   -0.0523
-0.1339   -0.1249
-0.1826   -0.2547
-0.2370   -0.4396
-0.2982   -0.5401
-0.3657   -0.5460
-0.4474   -0.5515
-0.5376   -0.5589
-0.6274   -0.5726
-0.7060   -0.6004
-0.7734   -0.6478
-0.8253   -0.7094
-0.8582   -0.7581
-0.8666   -0.7845
-0.8744   -0.8014
-0.8804   -0.8124
-0.8871   -0.8197
-0.8899   -0.8208
-0.8866   -0.8137
-0.8747   -0.7949
-0.8434   -0.7487
-0.7773   -0.6823
-0.6450   -0.4913
-0.3514   -0.2502
 0.0091    0.2398
 0.9981    0.9743
 0.5807    0.5129
 0.3780    0.3115
 0.2605    0.2123
 0.2044    0.1605
 0.1786    0.1412
 0.1651    0.1319
 0.1597    0.1292
 0.1580    0.1298
 0.1593    0.1325
 0.1615    0.1358
 0.1639    0.1390
 0.1666    0.1421
 0.1696    0.1451
 0.1721    0.1475
 0.1747    0.1495
 0.1769    0.1509
 0.1792    0.1519
 0.1809    0.1522
 0.1828    0.1516
 0.1840    0.1501
 0.1861    0.1480
 0.1871    0.1446
 0.1889    0.1399
 0.1893    0.1337
 0.1977    0.1278
 0.2134    0.1218
 0.2271    0.1153
 0.2262    0.1202


Reynolds =  100000   Mach =    0  NCrit = 9.0
Alpha,Cd,Cl,Cm,XTr1,XTr2,TEHMom,Cpmn
  2.000       0.019     0.615    -0.090     0.733     1.000    0.0000  -0.7689
 Cpi          Cpv
-----------------
 0.2248    0.1275
 0.1907    0.1200
 0.1472    0.1084
 0.0874    0.0885
 0.0337    0.0629
-0.0073    0.0344
-0.0461    0.0012
-0.0846   -0.0431
-0.1274   -0.1170
-0.1746   -0.2610
-0.2273   -0.4854
-0.2866   -0.5097
-0.3519   -0.5158
-0.4309   -0.5221
-0.5181   -0.5312
-0.6044   -0.5481
-0.6792   -0.5807
-0.7425   -0.6331
-0.7901   -0.6924
-0.8184   -0.7347
-0.8220   -0.7542
-0.8244   -0.7646
-0.8241   -0.7689
-0.8232   -0.7688
-0.8168   -0.7613
-0.8022   -0.7440
-0.7761   -0.7130
-0.7265   -0.6505
-0.6367   -0.5644
-0.4723   -0.3521
-0.1508   -0.0748
 0.2962    0.4519
 0.9478    0.8990
 0.4572    0.3948
 0.2739    0.2217
 0.1789    0.1353
 0.1387    0.1033
 0.1248    0.0929
 0.1200    0.0920
 0.1213    0.0955
 0.1248    0.1009
 0.1304    0.1075
 0.1361    0.1140
 0.1414    0.1200
 0.1465    0.1255
 0.1517    0.1305
 0.1561    0.1347
 0.1603    0.1384
 0.1640    0.1414
 0.1677    0.1438
 0.1705    0.1455
 0.1735    0.1463
 0.1758    0.1461
 0.1789    0.1454
 0.1808    0.1434
 0.1835    0.1404
 0.1847    0.1360
 0.1940    0.1320
 0.2105    0.1280
 0.2250    0.1234
 0.2248    0.1275


Reynolds =  100000   Mach =    0  NCrit = 9.0
Alpha,Cd,Cl,Cm,XTr1,XTr2,TEHMom,Cpmn
  1.500       0.018     0.564    -0.091     0.745     1.000    0.0000  -0.7231
 Cpi          Cpv
-----------------
 0.2236    0.1287
 0.1902    0.1211
 0.1474    0.1095
 0.0885    0.0898
 0.0357    0.0644
-0.0043    0.0356
-0.0420    0.0004
-0.0793   -0.0507
-0.1208   -0.1407
-0.1665   -0.3005
-0.2175   -0.4705
-0.2749   -0.4775
-0.3380   -0.4837
-0.4144   -0.4906
-0.4985   -0.5011
-0.5813   -0.5211
-0.6524   -0.5575
-0.7117   -0.6130
-0.7549   -0.6690
-0.7787   -0.7053
-0.7777   -0.7187
-0.7748   -0.7231
-0.7683   -0.7210
-0.7601   -0.7136
-0.7449   -0.6977
-0.7195   -0.6703
-0.6799   -0.6272
-0.6132   -0.5490
-0.5017   -0.4431
-0.3090   -0.2119
 0.0339    0.0954
 0.5344    0.6388
 0.8287    0.7661
 0.3179    0.2550
 0.1619    0.1207
 0.0933    0.0512
 0.0706    0.0398
 0.0694    0.0406
 0.0738    0.0486
 0.0822    0.0588
 0.0912    0.0695
 0.1012    0.0802
 0.1104    0.0902
 0.1187    0.0991
 0.1264    0.1071
 0.1338    0.1142
 0.1400    0.1203
 0.1459    0.1256
 0.1511    0.1301
 0.1561    0.1339
 0.1602    0.1368
 0.1644    0.1389
 0.1677    0.1398
 0.1718    0.1401
 0.1746    0.1392
 0.1782    0.1373
 0.1803    0.1339
 0.1904    0.1310
 0.2077    0.1281
 0.2230    0.1244
 0.2236    0.1287


Reynolds =  100000   Mach =    0  NCrit = 9.0
Alpha,Cd,Cl,Cm,XTr1,XTr2,TEHMom,Cpmn
  1.000       0.017     0.511    -0.092     0.759     1.000    0.0000  -0.6813
 Cpi          Cpv
-----------------
 0.2224    0.1288
 0.1898    0.1212
 0.1478    0.1097
 0.0897    0.0903
 0.0379    0.0650
-0.0012    0.0354
-0.0377   -0.0033
-0.0739   -0.0637
-0.1140   -0.1732
-0.1582   -0.3409
-0.2076   -0.4387
-0.2630   -0.4453
-0.3239   -0.4516
-0.3977   -0.4591
-0.4788   -0.4711
-0.5582   -0.4940
-0.6256   -0.5339
-0.6808   -0.5910
-0.7198   -0.6428
-0.7391   -0.6735
-0.7337   -0.6813
-0.7256   -0.6800
-0.7132   -0.6717
-0.6978   -0.6574
-0.6741   -0.6333
-0.6385   -0.5961
-0.5861   -0.5415
-0.5035   -0.4487
-0.3723   -0.3237
-0.1551   -0.0770
 0.2025    0.2530
 0.7236    0.7893
 0.6409    0.5760
 0.1629    0.0959
 0.0420    0.0112
 0.0035   -0.0368
-0.0001   -0.0276
 0.0125   -0.0138
 0.0267    0.0034
 0.0424    0.0208
 0.0571    0.0370
 0.0716    0.0521
 0.0845    0.0657
 0.0959    0.0776
 0.1062    0.0881
 0.1157    0.0974
 0.1240    0.1054
 0.1315    0.1124
 0.1382    0.1184
 0.1447    0.1236
 0.1500    0.1277
 0.1553    0.1310
 0.1597    0.1331
 0.1648    0.1344
 0.1685    0.1345
 0.1730    0.1336
 0.1760    0.1313
 0.1869    0.1293
 0.2051    0.1272
 0.2211    0.1244
 0.2224    0.1288


Reynolds =  100000   Mach =    0  NCrit = 9.0
Alpha,Cd,Cl,Cm,XTr1,XTr2,TEHMom,Cpmn
  0.500       0.017     0.463    -0.092     0.778     1.000    0.0000  -0.6487
 Cpi          Cpv
-----------------
 0.2214    0.1341
 0.1895    0.1258
 0.1482    0.1142
 0.0910    0.0945
 0.0401    0.0695
 0.0021    0.0409
-0.0333    0.0031
-0.0682   -0.0605
-0.1070   -0.1872
-0.1498   -0.3887
-0.1975   -0.4103
-0.2510   -0.4170
-0.3098   -0.4239
-0.3809   -0.4327
-0.4590   -0.4472
-0.5350   -0.4740
-0.5987   -0.5181
-0.6500   -0.5752
-0.6848   -0.6219
-0.6998   -0.6466
-0.6899   -0.6487
-0.6768   -0.6417
-0.6587   -0.6275
-0.6364   -0.6065
-0.6046   -0.5748
-0.5592   -0.5286
-0.4948   -0.4634
-0.3974   -0.3580
-0.2485   -0.2158
-0.0107    0.0425
 0.3551    0.3868
 0.8638    0.8941
 0.3844    0.3473
-0.0079   -0.0703
-0.0858   -0.0981
-0.0904   -0.1217
-0.0731   -0.0934
-0.0460   -0.0661
-0.0215   -0.0396
 0.0019   -0.0152
 0.0224    0.0064
 0.0417    0.0259
 0.0584    0.0431
 0.0729    0.0579
 0.0858    0.0709
 0.0977    0.0824
 0.1079    0.0924
 0.1172    0.1011
 0.1254    0.1087
 0.1332    0.1153
 0.1398    0.1208
 0.1463    0.1256
 0.1518    0.1290
 0.1579    0.1316
 0.1626    0.1331
 0.1679    0.1336
 0.1718    0.1329
 0.1835    0.1325
 0.2026    0.1319
 0.2193    0.1304
 0.2214    0.1341


Reynolds =  100000   Mach =    0  NCrit = 9.0
Alpha,Cd,Cl,Cm,XTr1,XTr2,TEHMom,Cpmn
  0.000       0.016     0.411    -0.093     0.791     1.000    0.0000  -0.6147
 Cpi          Cpv
-----------------
 0.2205    0.1332
 0.1893    0.1250
 0.1488    0.1135
 0.0924    0.0940
 0.0426    0.0685
 0.0056    0.0371
-0.0287   -0.0090
-0.0625   -0.0905
-0.0999   -0.2353
-0.1412   -0.3729
-0.1872   -0.3801
-0.2389   -0.3867
-0.2954   -0.3940
-0.3640   -0.4039
-0.4391   -0.4206
-0.5117   -0.4505
-0.5718   -0.4978
-0.6192   -0.5533
-0.6499   -0.5952
-0.6606   -0.6147
-0.6465   -0.6114
-0.6285   -0.5992
-0.6048   -0.5792
-0.5759   -0.5517
-0.5363   -0.5126
-0.4816   -0.4575
-0.4059   -0.3816
-0.2951   -0.2649
-0.1304   -0.1052
 0.1242    0.1612
 0.4916    0.5139
 0.9549    0.9661
 0.0594    0.0551
-0.1944   -0.2646
-0.2214   -0.2210
-0.1883   -0.2140
-0.1486   -0.1656
-0.1060   -0.1233
-0.0707   -0.0865
-0.0393   -0.0545
-0.0127   -0.0270
 0.0114   -0.0028
 0.0321    0.0181
 0.0498    0.0361
 0.0654    0.0518
 0.0796    0.0655
 0.0918    0.0775
 0.1028    0.0880
 0.1126    0.0971
 0.1219    0.1051
 0.1297    0.1118
 0.1374    0.1177
 0.1440    0.1223
 0.1511    0.1259
 0.1567    0.1283
 0.1630    0.1297
 0.1677    0.1299
 0.1803    0.1303
 0.2001    0.1303
 0.2176    0.1295
 0.2205    0.1332


Reynolds =  100000   Mach =    0  NCrit = 9.0
Alpha,Cd,Cl,Cm,XTr1,XTr2,TEHMom,Cpmn
 -0.500       0.016     0.358    -0.094     0.807     1.000    0.0000  -0.5831
 Cpi          Cpv
-----------------
 0.2197    0.1330
 0.1893    0.1246
 0.1495    0.1130
 0.0940    0.0934
 0.0451    0.0671
 0.0092    0.0325
-0.0240   -0.0222
-0.0566   -0.1215
-0.0927   -0.2762
-0.1325   -0.3438
-0.1768   -0.3507
-0.2266   -0.3575
-0.2810   -0.3655
-0.3470   -0.3768
-0.4192   -0.3961
-0.4884   -0.4292
-0.5449   -0.4793
-0.5885   -0.5320
-0.6151   -0.5688
-0.6217   -0.5831
-0.6034   -0.5748
-0.5807   -0.5574
-0.5515   -0.5318
-0.5163   -0.4981
-0.4693   -0.4518
-0.4058   -0.3886
-0.3196   -0.3018
-0.1964   -0.1773
-0.0180    0.0015
 0.2496    0.2700
 0.6119    0.6260
 0.9969    0.9980
-0.3340   -0.2833
-0.3964   -0.4780
-0.3648   -0.3504
-0.2902   -0.3077
-0.2264   -0.2394
-0.1674   -0.1817
-0.1209   -0.1341
-0.0812   -0.0941
-0.0482   -0.0606
-0.0192   -0.0316
 0.0055   -0.0069
 0.0265    0.0144
 0.0449    0.0327
 0.0615    0.0488
 0.0757    0.0628
 0.0885    0.0750
 0.0999    0.0857
 0.1106    0.0951
 0.1197    0.1031
 0.1285    0.1101
 0.1362    0.1159
 0.1443    0.1206
 0.1510    0.1240
 0.1581    0.1264
 0.1637    0.1276
 0.1771    0.1288
 0.1978    0.1295
 0.2161    0.1294
 0.2197    0.1330


Reynolds =  100000   Mach =    0  NCrit = 9.0
Alpha,Cd,Cl,Cm,XTr1,XTr2,TEHMom,Cpmn
 -1.000       0.015     0.310    -0.095     0.825     1.000    0.0000  -0.8222
 Cpi          Cpv
-----------------
 0.2191    0.1363
 0.1894    0.1270
 0.1504    0.1156
 0.0958    0.0961
 0.0478    0.0701
 0.0129    0.0350
-0.0192   -0.0248
-0.0505   -0.1428
-0.0853   -0.3093
-0.1236   -0.3171
-0.1663   -0.3243
-0.2142   -0.3319
-0.2665   -0.3412
-0.3300   -0.3549
-0.3991   -0.3779
-0.4651   -0.4150
-0.5180   -0.4667
-0.5578   -0.5154
-0.5805   -0.5467
-0.5829   -0.5556
-0.5606   -0.5423
-0.5333   -0.5198
-0.4989   -0.4889
-0.4577   -0.4494
-0.4035   -0.3963
-0.3318   -0.3266
-0.2358   -0.2271
-0.1014   -0.1024
 0.0886    0.1022
 0.3655    0.3579
 0.7161    0.7224
 0.9898    0.9929
-0.7958   -0.5469
-0.6141   -0.8222
-0.5159   -0.4927
-0.3961   -0.3780
-0.3066   -0.3069
-0.2304   -0.2370
-0.1721   -0.1793
-0.1237   -0.1316
-0.0842   -0.0921
-0.0500   -0.0586
-0.0212   -0.0300
 0.0031   -0.0056
 0.0243    0.0154
 0.0433    0.0338
 0.0595    0.0498
 0.0742    0.0639
 0.0872    0.0762
 0.0993    0.0871
 0.1098    0.0965
 0.1198    0.1048
 0.1286    0.1119
 0.1377    0.1179
 0.1453    0.1225
 0.1534    0.1261
 0.1598    0.1287
 0.1741    0.1310
 0.1957    0.1327
 0.2147    0.1334
 0.2191    0.1363


Reynolds =  100000   Mach =    0  NCrit = 9.0
Alpha,Cd,Cl,Cm,XTr1,XTr2,TEHMom,Cpmn
 -1.500       0.017     0.244    -0.094     0.838     0.114    0.0000  -1.1235
 Cpi          Cpv
-----------------
 0.2185    0.1433
 0.1896    0.1357
 0.1514    0.1230
 0.0976    0.1011
 0.0507    0.0698
 0.0168    0.0233
-0.0142   -0.0554
-0.0443   -0.1849
-0.0778   -0.2763
-0.1147   -0.2833
-0.1557   -0.2900
-0.2017   -0.2975
-0.2518   -0.3073
-0.3128   -0.3220
-0.3790   -0.3468
-0.4417   -0.3860
-0.4911   -0.4375
-0.5272   -0.4828
-0.5460   -0.5097
-0.5444   -0.5142
-0.5181   -0.4963
-0.4864   -0.4692
-0.4470   -0.4330
-0.3999   -0.3875
-0.3391   -0.3275
-0.2596   -0.2501
-0.1546   -0.1411
-0.0103   -0.0066
 0.1895    0.2065
 0.4717    0.4676
 0.8041    0.8097
 0.9335    0.9442
-1.3258   -0.9054
-0.8472   -1.1235
-0.6747   -0.7696
-0.5060   -0.5510
-0.3891   -0.4040
-0.2948   -0.3117
-0.2242   -0.2477
-0.1669   -0.1755
-0.1207   -0.1199
-0.0812   -0.0817
-0.0482   -0.0520
-0.0204   -0.0264
 0.0037   -0.0035
 0.0251    0.0168
 0.0434    0.0345
 0.0600    0.0503
 0.0746    0.0643
 0.0881    0.0769
 0.0999    0.0878
 0.1112    0.0978
 0.1211    0.1064
 0.1312    0.1140
 0.1398    0.1192
 0.1488    0.1233
 0.1561    0.1258
 0.1712    0.1294
 0.1936    0.1321
 0.2134    0.1317
 0.2185    0.1433


Reynolds =  100000   Mach =    0  NCrit = 9.0
Alpha,Cd,Cl,Cm,XTr1,XTr2,TEHMom,Cpmn
 -2.000       0.019     0.196    -0.096     0.859     0.040    0.0000  -1.2639
 Cpi          Cpv
-----------------
 0.2181    0.1475
 0.1899    0.1394
 0.1525    0.1263
 0.0996    0.1036
 0.0537    0.0698
 0.0209    0.0160
-0.0090   -0.0841
-0.0380   -0.2406
-0.0701   -0.2521
-0.1055   -0.2590
-0.1449   -0.2661
-0.1891   -0.2745
-0.2371   -0.2858
-0.2955   -0.3031
-0.3588   -0.3312
-0.4183   -0.3735
-0.4643   -0.4239
-0.4966   -0.4647
-0.5116   -0.4869
-0.5062   -0.4868
-0.4760   -0.4646
-0.4401   -0.4331
-0.3958   -0.3924
-0.3431   -0.3419
-0.2760   -0.2763
-0.1892   -0.1931
-0.0760   -0.0773
 0.0771    0.0640
 0.2846    0.2817
 0.5682    0.5439
 0.8758    0.8635
 0.8282    0.8844
-1.9238   -1.0864
-1.0958   -1.2639
-0.8411   -1.0203
-0.6198   -0.8955
-0.4740   -0.4942
-0.3607   -0.3222
-0.2773   -0.2520
-0.2107   -0.2013
-0.1575   -0.1561
-0.1127   -0.1154
-0.0753   -0.0801
-0.0440   -0.0495
-0.0170   -0.0229
 0.0069    0.0007
 0.0274    0.0212
 0.0457    0.0395
 0.0620    0.0552
 0.0770    0.0696
 0.0901    0.0819
 0.1026    0.0929
 0.1136    0.1023
 0.1249    0.1111
 0.1344    0.1176
 0.1443    0.1231
 0.1525    0.1271
 0.1685    0.1320
 0.1917    0.1362
 0.2122    0.1375
 0.2181    0.1475


